test/test_files/validation_tests/case3120sp_res.m
function mpc = case3120sp_res
%CASE3120SP_RES

%% MATPOWER Case Format : Version 2
mpc.version = '2';

%%-----  Power Flow Data  -----%%
%% system MVA base
mpc.baseMVA = 100;

%% bus data
%	bus_i	type	Pd	Qd	Gs	Bs	area	Vm	Va	baseKV	zone	Vmax	Vmin
mpc.bus = [
	1	1	0	0	0	0	1	1.08941183	-2.52773107	220	1	1.11	0.95;
	2	1	0	0	0	0	1	1.09292402	-0.762234474	220	1	1.11	0.95;
	3	1	0	0	0	0	1	1.0697841	-26.0403822	220	1	1.11	0.95;
	4	1	0	0	0	0	1	1.0697395	-26.0495624	220	1	1.11	0.95;
	5	1	0	0	0	0	1	1.09772291	-28.2418611	220	1	1.11	0.95;
	6	1	0	0	0	0	1	1.05875042	-7.50190834	220	1	1.11	0.95;
	7	1	0	0	0	0	1	1.05873586	-7.50384674	220	1	1.11	0.95;
	8	1	0	0	0	0	1	1.06669099	-15.943489	220	1	1.11	0.95;
	9	1	0	0	0	0	1	1.06694487	-15.9279302	220	1	1.11	0.95;
	10	1	0	0	0	0	1	1.0763045	-20.218878	220	1	1.11	0.95;
	11	1	0	0	0	0	1	1.01050319	-11.8250199	400	1	1.05	0.95;
	12	1	0	0	0	0	1	1.01056898	-11.8163248	400	1	1.05	0.95;
	13	1	0	0	0	0	1	0.9835887	-16.1295262	400	1	1.05	0.95;
	14	1	0	0	0	0	1	1.01458557	-16.5386951	220	1	1.11	0.95;
	15	1	0	0	0	0	1	1.01440738	-16.5424364	220	1	1.11	0.95;
	16	1	0	0	0	0	1	0.983611233	-21.094561	220	1	1.11	0.95;
	17	1	0	0	0	0	1	0.981304384	-21.1444655	220	1	1.11	0.95;
	18	1	0	0	0	0	1	1.01211238	-10.4472107	400	1	1.05	0.95;
	19	1	0	0	0	0	1	1.01217647	-10.4378402	400	1	1.05	0.95;
	20	1	0	0	0	0	1	0.989173898	-19.908482	400	1	1.05	0.95;
	21	1	0	0	0	0	1	1.00431887	-16.1670086	400	1	1.05	0.95;
	22	2	10	20	0	0	1	1.06818	-20.1350196	220	1	1.11	0.95;
	23	2	10	20	0	0	1	1.06818	-20.1357277	220	1	1.11	0.95;
	24	1	0	0	0	0	1	1.06579043	-6.67282509	220	1	1.11	0.95;
	25	1	0	0	0	0	1	1.06587886	-6.68428478	220	1	1.11	0.95;
	26	1	0	0	0	0	1	1.01518595	-19.9083955	220	1	1.11	0.95;
	27	1	0	0	0	0	1	1.01516186	-19.9058339	220	1	1.11	0.95;
	28	1	0	0	0	0	1	1.0173166	-15.7194658	220	1	1.11	0.95;
	29	1	0	0	0	0	1	1.0172247	-15.7358045	220	1	1.11	0.95;
	30	1	0	0	0	0	1	1.07245887	-4.2039675	220	1	1.11	0.95;
	31	1	0	0	0	0	1	1.07234137	-4.22702262	220	1	1.11	0.95;
	32	1	0	0	0	0	1	1.00575752	-14.9959994	400	1	1.05	0.95;
	33	1	0	0	0	0	1	1.00572979	-15.0014896	400	1	1.05	0.95;
	34	1	0	0	0	0	1	0.999360627	-18.4246746	400	1	1.05	0.95;
	35	2	32.16	52.07	0	0	1	1.09545	-2.36012763	220	1	1.11	0.95;
	36	2	46.36	92.07	0	0	1	1.09545	-0.576099369	220	1	1.11	0.95;
	37	3	60	120	0	0	1	1.04	0	400	1	1.05	0.95;
	38	2	60	120	0	0	1	1.04	-0.00638503691	400	1	1.05	0.95;
	39	1	0	0	0	0	1	1.01019478	-18.1362527	220	1	1.11	0.95;
	40	1	0	0	0	0	1	1.01010549	-18.1395491	220	1	1.11	0.95;
	41	1	0	0	0	0	1	1.03381104	-1.89785347	400	1	1.05	0.95;
	42	1	0	0	0	0	1	1.03379488	-1.90030295	400	1	1.05	0.95;
	43	1	0	0	0	0	1	1.00983765	-16.8783478	220	1	1.11	0.95;
	44	1	0	0	0	0	1	1.0044156	-16.1674894	400	1	1.05	0.95;
	45	1	0	0	0	0	1	1.04862072	-9.47637015	220	1	1.11	0.95;
	46	1	0	0	0	0	1	1.04870292	-9.48475605	220	1	1.11	0.95;
	47	1	0	0	0	0	1	1.06630406	-7.42950843	220	2	1.11	0.95;
	48	1	0	0	0	0	1	1.06880986	-4.36318399	220	2	1.11	0.95;
	49	1	0	0	0	0	1	1.08033059	-2.54970541	220	2	1.11	0.95;
	50	1	0	0	0	0	1	1.08031328	-2.55305882	220	2	1.11	0.95;
	51	1	0	0	0	0	1	1.04200963	-8.38800453	220	2	1.11	0.95;
	52	1	3.97	1	0	0	1	1.08297327	-4.6452358	220	2	1.11	0.95;
	53	1	0	0	0	0	1	1.08303368	-4.63440555	220	2	1.11	0.95;
	54	1	0	0	0	0	1	1.0218188	-3.76611726	400	2	1.05	0.95;
	55	2	13	30	0	0	1	1.09091	-6.97115309	220	2	1.11	0.95;
	56	2	39.35	90.07	0	0	1	1.09091	-6.98786183	220	2	1.11	0.95;
	57	2	26	60	0	0	1	1.09091	-6.96164601	220	2	1.11	0.95;
	58	2	26	50	0	0	1	1.035	-6.72246733	400	2	1.05	0.95;
	59	2	26	50	0	0	1	1.035	-6.71660421	400	2	1.05	0.95;
	60	1	0	0	0	0	1	1.07722093	-5.25161322	220	2	1.11	0.95;
	61	1	0	0	0	0	1	1.04671515	-3.61243846	400	2	1.05	0.95;
	62	1	0	0	0	0	1	1.04670543	-3.61377951	400	2	1.05	0.95;
	63	1	0	0	0	0	1	1.03052197	-7.7996561	400	2	1.05	0.95;
	64	1	0	0	0	0	1	1.05349974	-6.55772945	220	2	1.11	0.95;
	65	1	0	0	0	0	1	1.05348343	-6.55086852	220	2	1.11	0.95;
	66	1	0	0	0	0	1	1.03111208	-4.98813971	400	2	1.05	0.95;
	67	1	0	0	0	0	1	1.03111607	-4.98092931	400	2	1.05	0.95;
	68	2	13	30	0	0	1	1.08636	-0.911009924	220	2	1.11	0.95;
	69	2	26	60	0	0	1	1.08636	-0.895734744	220	2	1.11	0.95;
	70	2	0	2.25	0	0	1	1.03245218	-2.76824699	400	2	1.05	0.95;
	71	2	26	60	0	0	1	1.0325	-2.76829663	400	2	1.05	0.95;
	72	1	0	0	0	0	1	1.07506779	-7.72428148	220	2	1.11	0.95;
	73	1	0	0	0	0	1	1.07506827	-7.72231302	220	2	1.11	0.95;
	74	1	0	0	0	0	1	1.07683246	-4.80270373	220	2	1.11	0.95;
	75	1	0	0	0	0	1	1.07686602	-4.80782696	220	2	1.11	0.95;
	76	1	0	0	0	0	1	1.08142962	-7.41484041	220	2	1.11	0.95;
	77	1	0	0	0	0	1	1.08143394	-7.41991643	220	2	1.11	0.95;
	78	1	0	0	0	0	1	1.04352806	-3.34848858	400	2	1.05	0.95;
	79	1	0	0	0	0	1	1.04353385	-3.35169809	400	2	1.05	0.95;
	80	1	0	0	0	0	1	1.07332172	-4.23712189	220	2	1.11	0.95;
	81	1	0	0	0	0	1	1.0746033	-4.22540678	220	2	1.11	0.95;
	82	1	0	0	0	0	1	1.05658498	-5.17184933	220	2	1.11	0.95;
	83	1	0	0	0	0	1	1.07445773	-2.64886498	220	3	1.11	0.95;
	84	1	6.41	2.01	0	0	1	1.0771966	-3.13601693	220	3	1.11	0.95;
	85	1	13.89	5.02	0	0	1	1.07701123	-3.15010083	220	3	1.11	0.95;
	86	1	0	0	0	0	1	1.0697121	-1.00933705	220	3	1.11	0.95;
	87	1	0	0	0	0	1	1.06984809	-0.998977625	220	3	1.11	0.95;
	88	1	0	0	0	0	1	1.08148313	0.671078495	220	3	1.11	0.95;
	89	1	0	0	0	0	1	1.08150392	0.66713801	220	3	1.11	0.95;
	90	1	0	0	0	0	1	1.04151467	-3.05661273	220	3	1.11	0.95;
	91	1	0	0	0	0	1	1.04127707	-3.05683582	220	3	1.11	0.95;
	92	2	28	70	0	0	1	1.08182	-0.123152391	220	3	1.11	0.95;
	93	2	28	68	0	0	1	1.08182	-0.239064143	220	3	1.11	0.95;
	94	1	2.78	1.91	0	0	1	1.0616272	-0.374265407	220	3	1.11	0.95;
	95	1	0	0	0	0	1	1.06164408	-0.377356608	220	3	1.11	0.95;
	96	2	32	142	0	0	1	1.0375	1.41046167	400	3	1.05	0.95;
	97	1	0	0	0	0	1	1.03746657	1.38310322	400	3	1.05	0.95;
	98	1	0	0	0	0	1	1.04064936	-1.35181375	220	3	1.11	0.95;
	99	1	0	0	0	0	1	1.07779285	0.440786248	220	3	1.11	0.95;
	100	1	0	0	0	0	1	1.07779328	0.434291846	220	3	1.11	0.95;
	101	1	38.8	-2.7	0	0	1	1.07753723	-2.40444829	220	3	1.11	0.95;
	102	1	0	0	0	0	1	1.077494	-2.40563733	220	3	1.11	0.95;
	103	1	0	0	0	0	1	1.07476389	-0.0951675387	220	3	1.11	0.95;
	104	1	0	0	0	0	1	1.07468493	-0.0976347731	220	3	1.11	0.95;
	105	1	0	0	0	0	1	1.07979428	-2.1612264	220	3	1.11	0.95;
	106	1	0	0	0	0	1	1.07980953	-2.1628074	220	3	1.11	0.95;
	107	1	0	0	0	0	1	1.03862477	-1.1764805	400	3	1.05	0.95;
	108	1	0	0	0	0	1	1.03865454	-1.16995554	400	3	1.05	0.95;
	109	1	0	0	0	0	1	1.07651402	0.323546258	220	3	1.11	0.95;
	110	1	0	0	0	0	1	1.07649194	0.326702617	220	3	1.11	0.95;
	111	1	0	0	0	0	1	1.05901717	0.304672113	220	3	1.11	0.95;
	112	1	0	0	0	0	1	1.05893658	0.296272848	220	3	1.11	0.95;
	113	2	38.41	12.71	0	0	1	1.07727	-1.34694468	220	3	1.11	0.95;
	114	1	0	0	0	0	1	1.07724997	-1.35455651	220	3	1.11	0.95;
	115	1	0	0	0	0	1	1.07732166	-3.11842311	220	3	1.11	0.95;
	116	1	0	0	0	0	1	1.07731568	-3.12119299	220	3	1.11	0.95;
	117	1	0	0	0	0	1	1.02832232	-3.03324051	220	3	1.11	0.95;
	118	1	0	0	0	0	1	1.02823832	-3.03005643	220	3	1.11	0.95;
	119	2	10	44	0	0	1	1.08182	1.00178723	220	3	1.11	0.95;
	120	2	10	44	0	0	1	1.08182	0.985307697	220	3	1.11	0.95;
	121	2	7	18	0	0	1	1.08182	0.230956201	220	3	1.11	0.95;
	122	2	8	21	0	0	1	1.08182	0.244392465	220	3	1.11	0.95;
	123	1	0	0	0	0	1	1.0740047	-2.20986773	220	3	1.11	0.95;
	124	1	59.4	11.61	0	0	1	1.07403998	-2.21448926	220	3	1.11	0.95;
	125	1	0	0	0	0	1	1.03915261	-3.45098109	220	3	1.11	0.95;
	126	1	0	0	0	0	1	1.05891461	0.325488951	220	3	1.11	0.95;
	127	1	0	0	0	0	1	1.05894066	0.32202567	220	3	1.11	0.95;
	128	1	0	0	0	0	1	1.06242053	-0.594799812	220	3	1.11	0.95;
	129	1	0	0	0	0	1	1.06256477	-0.59071875	220	3	1.11	0.95;
	130	1	0	0	0	0	1	1.0337015	-0.583398231	400	3	1.05	0.95;
	131	1	0	0	0	0	1	1.0337015	-0.583398231	400	3	1.05	0.95;
	132	2	0	1.78	0	0	1	1.07734563	-0.742198223	220	3	1.11	0.95;
	133	2	9	20	0	0	1	1.07727	-0.743263468	220	3	1.11	0.95;
	134	2	6	15	0	0	1	1.07273	-2.49862478	220	3	1.11	0.95;
	135	1	0	0	0	0	1	1.07255893	-2.498848	220	3	1.11	0.95;
	136	1	0	0	0	0	1	1.04232767	-3.24919222	400	3	1.05	0.95;
	137	1	0	0	0	0	1	1.04239369	-3.24817207	400	3	1.05	0.95;
	138	1	0	0	0	0	1	1.04205556	-1.45392961	400	3	1.05	0.95;
	139	1	0	0	0	0	1	1.04206371	-1.45583319	400	3	1.05	0.95;
	140	1	0	0	0	0	1	1.0352518	-3.75765549	220	3	1.11	0.95;
	141	1	0	0	0	0	1	1.03537938	-3.7538808	220	3	1.11	0.95;
	142	2	18.2	37.21	0	0	1	1.08182	1.8920725	220	3	1.11	0.95;
	143	2	41.52	73.01	0	0	1	1.08182	1.9045702	220	3	1.11	0.95;
	144	2	28	66	0	0	1	1.0375	0.956030947	400	3	1.05	0.95;
	145	1	0	0	0	0	1	1.0374586	0.950423933	400	3	1.05	0.95;
	146	1	0	0	0	0	1	1.07659738	-2.42726756	220	3	1.11	0.95;
	147	1	0	0	0	0	1	1.07663346	-2.41948081	220	3	1.11	0.95;
	148	1	0	0	0	0	1	1.08020065	0.0605852555	220	3	1.11	0.95;
	149	1	0	0	0	0	1	1.07843209	-2.14400553	220	3	1.11	0.95;
	150	2	0	-0.79	0	0	1	1.04159325	-3.0571941	220	3	1.11	0.95;
	151	2	0	-0.79	0	0	1	1.04135422	-3.05742539	220	3	1.11	0.95;
	152	2	7.7	20	0	0	1	1.06818	-12.242375	220	4	1.11	0.95;
	153	2	7.8	20	0	0	1	1.06818	-12.2505401	220	4	1.11	0.95;
	154	1	0	0	0	0	1	1.04520124	-9.72863775	220	4	1.11	0.95;
	155	1	0	0	0	0	1	1.04520168	-9.72969237	220	4	1.11	0.95;
	156	1	0	0	0	0	1	1.01236972	-11.2772959	220	4	1.11	0.95;
	157	1	0	0	0	0	1	1.06285848	-8.28116602	220	4	1.11	0.95;
	158	1	0	0	0	0	1	1.06277287	-8.28913241	220	4	1.11	0.95;
	159	1	0	0	0	0	1	1.00706134	-6.79594237	400	4	1.05	0.95;
	160	1	0	0	0	0	1	1.00704222	-6.79597113	400	4	1.05	0.95;
	161	1	0	0	0	0	1	1.00466306	-21.4293791	220	4	1.11	0.95;
	162	1	0	0	0	0	1	1.06041497	-33.2560734	220	4	1.11	0.95;
	163	1	0	0	0	0	1	1.06041497	-33.2560734	220	4	1.11	0.95;
	164	1	0	0	0	0	1	1.03193829	-28.1553751	220	4	1.11	0.95;
	165	1	0	0	0	0	1	1.03193829	-28.1553751	220	4	1.11	0.95;
	166	1	0	0	0	0	1	1.00730344	-11.5603072	220	4	1.11	0.95;
	167	2	0	-13.01	0	0	1	1.0530173	-16.2785958	220	4	1.11	0.95;
	168	1	0	0	0	0	1	1.05304215	-16.282969	220	4	1.11	0.95;
	169	2	12	30	0	0	1	1.08182	-31.4622829	220	4	1.11	0.95;
	170	2	19.91	36.57	0	0	1	1.08182	-31.4434338	220	4	1.11	0.95;
	171	2	12	30	0	0	1	1.0325	-24.3579339	400	4	1.05	0.95;
	172	2	12	30	0	0	1	1.0325	-24.3430919	400	4	1.05	0.95;
	173	1	0	0	0	0	1	0.960756904	-21.0739824	220	4	1.11	0.95;
	174	1	0	0	0	0	1	0.960814188	-21.0821819	220	4	1.11	0.95;
	175	1	0	0	0	0	1	0.996009016	-20.7241006	220	4	1.11	0.95;
	176	1	0	0	0	0	1	0.996145026	-20.7168614	220	4	1.11	0.95;
	177	2	30.5	64.2	0	0	1	1.09091	-5.01452834	220	4	1.11	0.95;
	178	2	58.9	96	0	0	1	1.09091	-5.01308445	220	4	1.11	0.95;
	179	1	0	0	0	0	1	1.09091	-5.01308445	220	4	1.11	0.95;
	180	2	26.5	64.2	0	0	1	1.03	-3.90044989	400	4	1.05	0.95;
	181	1	0	0	0	0	1	1.02989381	-3.90240109	400	4	1.05	0.95;
	182	1	0	0	0	0	1	1.06190679	-33.1397592	220	4	1.11	0.95;
	183	1	0	0	0	0	1	1.06190679	-33.1397592	220	4	1.11	0.95;
	184	1	0	0	0	0	1	1.01183836	-5.57687497	400	4	1.05	0.95;
	185	1	0	0	0	0	1	0.975357022	-12.6353889	400	4	1.05	0.95;
	186	1	0	0	0	0	1	1.01091862	-5.10102113	400	4	1.05	0.95;
	187	1	0	0	0	0	1	1.01097846	-5.08957507	400	4	1.05	0.95;
	188	2	12	30	0	0	1	1.05455	-16.3892643	220	4	1.11	0.95;
	189	2	23.8	60	0	0	1	1.05455	-16.410076	220	4	1.11	0.95;
	190	2	38	64	0	0	1	1.005	-10.5289988	400	4	1.05	0.95;
	191	1	0	0	0	0	1	0.999026506	-28.8801616	220	4	1.11	0.95;
	192	1	0	0	0	0	1	0.999088868	-28.8933872	220	4	1.11	0.95;
	193	1	0	0	0	0	1	1.05836868	-33.3623279	220	4	1.11	0.95;
	194	1	0	0	0	0	1	1.05835205	-33.3634917	220	4	1.11	0.95;
	195	1	0	0	0	0	1	1.00571416	-21.0992381	220	4	1.11	0.95;
	196	1	0	0	0	0	1	1.00560932	-21.1108337	220	4	1.11	0.95;
	197	1	0	0	0	0	1	0.970200438	-17.4721087	400	4	1.05	0.95;
	198	1	0	0	0	0	1	0.985954138	-16.2550213	220	4	1.11	0.95;
	199	1	0	0	0	0	1	0.985956455	-16.2488613	220	4	1.11	0.95;
	200	1	0	0	0	0	1	0.996679777	-21.8753836	220	4	1.11	0.95;
...
];

%% generator data
%	bus	Pg	Qg	Qmax	Qmin	Vg	mBase	status	Pmax	Pmin	Pc1	Pc2	Qc1min	Qc1max	Qc2min	Qc2max	ramp_agc	ramp_10	ramp_30	ramp_q	apf
mpc.gen = [
	22	180	16.4492865	162	-61	1.06818	235	1	221	110	0	0	0	0	0	0	0	0	0	0	0;
	23	180	32.407688	140	-25	1.06818	235	1	200	140	0	0	0	0	0	0	0	0	0	0	0;
	35	0	0	190	-19	1.09545	426	0	370	240	0	0	0	0	0	0	0	0	0	0	0;
	35	0	0	190	-19	1.09545	426	0	370	240	0	0	0	0	0	0	0	0	0	0	0;
	35	345	163.699722	190	-19	1.09545	426	1	370	240	0	0	0	0	0	0	0	0	0	0	0;
	36	370	78.8604545	190	-19	1.09545	426	1	370	240	0	0	0	0	0	0	0	0	0	0	0;
	36	320	78.8604545	190	-19	1.09545	426	1	370	240	0	0	0	0	0	0	0	0	0	0	0;
	37	859.960886	61.7873177	190	-19	1.04	426	1	370	240	0	0	0	0	0	0	0	0	0	0	0;
	37	340	61.7873177	190	-19	1.04	426	1	370	240	0	0	0	0	0	0	0	0	0	0	0;
	37	340	61.7873177	190	-19	1.04	426	1	370	240	0	0	0	0	0	0	0	0	0	0	0;
	38	370	73.0605547	190	-19	1.04	426	1	370	240	0	0	0	0	0	0	0	0	0	0	0;
	38	340	73.0605547	190	-19	1.04	426	1	370	240	0	0	0	0	0	0	0	0	0	0	0;
	38	340	73.0605547	190	-19	1.04	426	1	370	240	0	0	0	0	0	0	0	0	0	0	0;
	55	205	95.2694405	152	-33	1.09091	235	1	215	110	0	0	0	0	0	0	0	0	0	0	0;
	55	0	0	152	-33	1.09091	235	0	220	125	0	0	0	0	0	0	0	0	0	0	0;
	56	0	0	149	-33	1.09091	235	0	225	125	0	0	0	0	0	0	0	0	0	0	0;
	56	205	224.674675	149	-33	1.09091	235	1	225	110	0	0	0	0	0	0	0	0	0	0	0;
	57	225	35.6591583	149	-33	1.09091	235	1	225	110	0	0	0	0	0	0	0	0	0	0	0;
	57	185	35.6591583	149	-33	1.09091	235	1	225	120	0	0	0	0	0	0	0	0	0	0	0;
	58	330	193.532375	363	-47	1.035	588	1	535	255	0	0	0	0	0	0	0	0	0	0	0;
	59	330	97.9576099	348	-100	1.035	588	1	560	250	0	0	0	0	0	0	0	0	0	0	0;
	68	210	-90.1976207	120	-14	1.08636	235	1	225	129	0	0	0	0	0	0	0	0	0	0	0;
	69	225	31.1705443	120	-14	1.08636	235	1	225	129	0	0	0	0	0	0	0	0	0	0	0;
	69	195	26.743204	99	-10	1.08636	235	1	225	129	0	0	0	0	0	0	0	0	0	0	0;
	70	0	0	120	-14	1.0325	235	0	225	129	0	0	0	0	0	0	0	0	0	0	0;
	70	0	0	120	-14	1.0325	235	0	225	129	0	0	0	0	0	0	0	0	0	0	0;
	71	225	-4.98519138	99	-10	1.0325	235	1	225	129	0	0	0	0	0	0	0	0	0	0	0;
	71	215	-7.83500592	120	-14	1.0325	235	1	225	129	0	0	0	0	0	0	0	0	0	0	0;
	92	220	127.382118	134	-7	1.08182	271	1	220	140	0	0	0	0	0	0	0	0	0	0	0;
	92	210	124.56986	131	-6	1.08182	271	1	225	140	0	0	0	0	0	0	0	0	0	0	0;
	93	0	0	131	-6	1.08182	271	0	225	140	0	0	0	0	0	0	0	0	0	0	0;
	93	225	104.83334	131	-6	1.08182	271	1	225	140	0	0	0	0	0	0	0	0	0	0	0;
	93	205	104.83334	131	-6	1.08182	271	1	225	140	0	0	0	0	0	0	0	0	0	0	0;
	96	383	6.80653358	213	-30	1.0375	426	1	383	180	0	0	0	0	0	0	0	0	0	0	0;
	96	357	5.80653358	212	-31	1.0375	435	1	380	180	0	0	0	0	0	0	0	0	0	0	0;
	113	0	0	0	0	1.07727	12	0	12	0	0	0	0	0	0	0	0	0	0	0	0;
	113	0	0	0	0	1.07727	6	0	6	0	0	0	0	0	0	0	0	0	0	0	0;
	113	19	7.4722795	0	0	1.07727	26	1	21	0	0	0	0	0	0	0	0	0	0	0	0;
	119	215	88.9619281	120	-10	1.08182	271	1	225	120	0	0	0	0	0	0	0	0	0	0	0;
	120	215	93.9099664	120	-10	1.08182	271	1	225	120	0	0	0	0	0	0	0	0	0	0	0;
	121	115	61.8941255	73	-1	1.08182	150	1	120	70	0	0	0	0	0	0	0	0	0	0	0;
	122	115	44.797206	73	-1	1.08182	150	1	120	70	0	0	0	0	0	0	0	0	0	0	0;
	132	0	0	79	0	1.07727	150	0	120	70	0	0	0	0	0	0	0	0	0	0	0;
	133	115	29.507523	79	0	1.07727	150	1	120	70	0	0	0	0	0	0	0	0	0	0	0;
	134	105	349.084745	31	0	1.07273	118	1	110	80	0	0	0	0	0	0	0	0	0	0	0;
	142	205	45.0673067	135	-35	1.08182	271	1	215	135	0	0	0	0	0	0	0	0	0	0	0;
	143	215	57.2905393	135	-35	1.08182	271	1	215	135	0	0	0	0	0	0	0	0	0	0	0;
	143	205	60.0049669	140	-35	1.08182	271	1	225	135	0	0	0	0	0	0	0	0	0	0	0;
	144	225	7.01303384	140	-36	1.0375	271	1	225	135	0	0	0	0	0	0	0	0	0	0	0;
	144	205	6.27985713	137	-36	1.0375	271	1	220	135	0	0	0	0	0	0	0	0	0	0	0;
	150	0	0	72	-29	1.04091	150	0	135	-135	0	0	0	0	0	0	0	0	0	0	0;
	150	0	0	72	-29	1.04091	150	0	135	-135	0	0	0	0	0	0	0	0	0	0	0;
	151	0	0	72	-29	1.04091	150	0	135	-135	0	0	0	0	0	0	0	0	0	0	0;
	151	0	0	72	-29	1.04091	150	0	135	-135	0	0	0	0	0	0	0	0	0	0	0;
	152	110	100.550149	85	-15	1.06818	150	1	120	100	0	0	0	0	0	0	0	0	0	0	0;
	152	0	0	85	-15	1.06818	150	0	120	100	0	0	0	0	0	0	0	0	0	0	0;
	153	110	90.3101572	85	-15	1.06818	150	1	120	100	0	0	0	0	0	0	0	0	0	0	0;
	167	0	0	12	0	1.05	51	0	50	40	0	0	0	0	0	0	0	0	0	0	0;
	169	180	130.535076	111	-21	1.08182	238	1	205	135	0	0	0	0	0	0	0	0	0	0	0;
	170	0	0	102	-15	1.08182	252	0	222	90	0	0	0	0	0	0	0	0	0	0	0;
	170	0	0	111	-21	1.08182	238	0	205	135	0	0	0	0	0	0	0	0	0	0	0;
	170	180	-15.8733697	119	-31	1.08182	252	1	232	100	0	0	0	0	0	0	0	0	0	0	0;
	171	200	137.016215	102	-15	1.0325	252	1	222	90	0	0	0	0	0	0	0	0	0	0	0;
	172	0	0	93	-10	1.0325	252	0	232	100	0	0	0	0	0	0	0	0	0	0	0;
	172	200	79.8990584	102	-15	1.0325	252	1	222	90	0	0	0	0	0	0	0	0	0	0	0;
	177	261	97.2786486	127	-35	1.09091	287	1	261	104	0	0	0	0	0	0	0	0	0	0	0;
	177	189	111.425881	145	-38	1.09091	264	1	235	94	0	0	0	0	0	0	0	0	0	0	0;
	178	0	0	103	-17	1.09091	238	0	206	120	0	0	0	0	0	0	0	0	0	0	0;
	178	235	106.581652	145	-38	1.09091	264	1	235	94	0	0	0	0	0	0	0	0	0	0	0;
	178	220	92.9903151	127	-35	1.09091	287	1	261	104	0	0	0	0	0	0	0	0	0	0	0;
	178	220	92.9903151	127	-35	1.09091	287	1	261	104	0	0	0	0	0	0	0	0	0	0	0;
	180	206	219.979307	103	-17	1.03	238	1	206	120	0	0	0	0	0	0	0	0	0	0	0;
	180	194	219.979307	103	-17	1.03	238	1	206	120	0	0	0	0	0	0	0	0	0	0	0;
	188	180	-6.41213452	112	-32	1.05455	233	1	225	150	0	0	0	0	0	0	0	0	0	0	0;
	189	200	137.079323	112	-32	1.05455	233	1	200	150	0	0	0	0	0	0	0	0	0	0	0;
	189	0	0	112	-32	1.05455	233	0	200	150	0	0	0	0	0	0	0	0	0	0	0;
	189	160	137.079323	112	-32	1.05455	233	1	200	150	0	0	0	0	0	0	0	0	0	0	0;
	190	400	250.022332	294	-259	1.005	464	1	464	186	0	0	0	0	0	0	0	0	0	0	0;
	204	0	0	100	0	1	218	0	188	76	0	0	0	0	0	0	0	0	0	0	0;
	236	179	18.1448339	105	-62	1.0375	209	1	179	-200	0	0	0	0	0	0	0	0	0	0	0;
	236	89.5	18.1448339	105	-62	1.0375	209	1	179	-200	0	0	0	0	0	0	0	0	0	0	0;
	236	89.5	23.3813829	130	-75	1.0375	209	1	179	-200	0	0	0	0	0	0	0	0	0	0	0;
	237	0	85.4753093	160	-100	1.0375	209	1	179	-200	0	0	0	0	0	0	0	0	0	0	0;
	240	224	35.6031138	150	0	1.09091	156	1	250	113	0	0	0	0	0	0	0	0	0	0	0;
	250	0	0	20	0	1.08182	79	0	55	23	0	0	0	0	0	0	0	0	0	0	0;
	250	0	0	20	0	1.08182	69	0	50	25	0	0	0	0	0	0	0	0	0	0	0;
	251	15	-1.63921352	20	0	1.08182	28	1	23	7	0	0	0	0	0	0	0	0	0	0	0;
	251	0	0	20	0	1.08182	69	0	50	25	0	0	0	0	0	0	0	0	0	0	0;
	267	1.5	21.5563429	1	0	1.07273	1	1	2	0	0	0	0	0	0	0	0	0	0	0	0;
	268	1.6	2.63634349	1	0	1.06364	1	1	2	0	0	0	0	0	0	0	0	0	0	0	0;
	282	0	0	5	0	1.07273	10	0	7	6	0	0	0	0	0	0	0	0	0	0	0;
	283	0	0	5	0	1.07273	10	0	7	6	0	0	0	0	0	0	0	0	0	0	0;
	301	5	7.59091355	3.75	0	1.04545	5	1	5	1	0	0	0	0	0	0	0	0	0	0	0;
	301	1.68	7.59091355	3.75	0	1.04545	5	1	5	1	0	0	0	0	0	0	0	0	0	0	0;
	301	1.68	7.59091355	3.75	0	1.04545	5	1	5	1	0	0	0	0	0	0	0	0	0	0	0;
	302	2.79	-13.2024056	3.75	0	1.04545	5	1	5	1	0	0	0	0	0	0	0	0	0	0	0;
	316	350	206.886936	190	-19	1	426	1	370	240	0	0	0	0	0	0	0	0	0	0	0;
	322	0	0	2	0	1.03636	4	0	6	1	0	0	0	0	0	0	0	0	0	0	0;
	322	0	0	2	0	1.03636	4	0	6	1	0	0	0	0	0	0	0	0	0	0	0;
	369	9.16	-42.3487523	4	0	1.07273	30	1	30	0	0	0	0	0	0	0	0	0	0	0	0;
	398	0	0	5	0	1.08182	8	0	7	5	0	0	0	0	0	0	0	0	0	0	0;
	402	0.9	-1.46049593	1	0	1.08182	1	1	1	0	0	0	0	0	0	0	0	0	0	0	0;
	402	0.55	-1.46049593	1	0	1.08182	1	1	1	0	0	0	0	0	0	0	0	0	0	0	0;
	402	0.55	-1.46049593	1	0	1.08182	1	1	1	0	0	0	0	0	0	0	0	0	0	0	0;
	409	0	0	7	0	1.07545	31	0	27	11	0	0	0	0	0	0	0	0	0	0	0;
	409	20	17.7079202	7	0	1.07545	39	1	30	11	0	0	0	0	0	0	0	0	0	0	0;
	409	0	0	6	0	1.07545	41	0	30	9	0	0	0	0	0	0	0	0	0	0	0;
	411	0	0	15	0	1.07273	69	0	55	20	0	0	0	0	0	0	0	0	0	0	0;
	411	20	16.5529284	15	0	1.07273	69	1	55	20	0	0	0	0	0	0	0	0	0	0	0;
	412	0	0	15	0	1.07273	49	0	40	10	0	0	0	0	0	0	0	0	0	0	0;
	412	0	0	15	0	1.07273	69	0	55	20	0	0	0	0	0	0	0	0	0	0	0;
	414	0	0	20	0	1.07273	69	0	50	25	0	0	0	0	0	0	0	0	0	0	0;
	414	0	0	20	0	1.07273	147	0	100	55	0	0	0	0	0	0	0	0	0	0	0;
	415	30	-10.2451356	40	0	1.07273	69	1	60	25	0	0	0	0	0	0	0	0	0	0	0;
	428	2	7.88199128	3	0	1.07273	4	1	3	2	0	0	0	0	0	0	0	0	0	0	0;
	466	0	0	1	0	1.06364	2	0	2	1	0	0	0	0	0	0	0	0	0	0	0;
	492	38	15.5740998	57	-22	1.07273	69	1	52	15	0	0	0	0	0	0	0	0	0	0	0;
	493	47	19.4342865	57	-22	1.07273	69	1	55	15	0	0	0	0	0	0	0	0	0	0	0;
	494	47	16.1223531	57	-22	1.08182	69	1	55	15	0	0	0	0	0	0	0	0	0	0	0;
	494	15	16.1223531	57	-22	1.08182	69	1	55	15	0	0	0	0	0	0	0	0	0	0	0;
	495	55	14.8154231	57	-22	1.07273	69	1	55	15	0	0	0	0	0	0	0	0	0	0	0;
	495	15	18.1357833	71	-28	1.07273	88	1	77	3	0	0	0	0	0	0	0	0	0	0	0;
	517	180	26.3898712	162	-61	1.09091	235	1	226	120	0	0	0	0	0	0	0	0	0	0	0;
	517	0	0	12	0	1.09091	49	0	25	12	0	0	0	0	0	0	0	0	0	0	0;
	518	15	25.7832992	12	0	1.1	49	1	17	10	0	0	0	0	0	0	0	0	0	0	0;
	522	0	0	2	0	1.06364	6	0	4	4	0	0	0	0	0	0	0	0	0	0	0;
	542	0.3	10.3651647	0.2	0	1.08182	0	1	0	0	0	0	0	0	0	0	0	0	0	0	0;
	571	0	0	4	0	1.04545	8	0	7	3	0	0	0	0	0	0	0	0	0	0	0;
	580	0	0	3	0	1.08182	5	0	3	3	0	0	0	0	0	0	0	0	0	0	0;
	587	4	2.13913543	4.7	3.8	1.06364	7	1	7	1	0	0	0	0	0	0	0	0	0	0	0;
	587	1	2.13913543	4.7	3.8	1.06364	7	1	7	1	0	0	0	0	0	0	0	0	0	0	0;
	587	0	0	4.7	3.8	1.06364	7	0	7	1	0	0	0	0	0	0	0	0	0	0	0;
	599	2.5	20.690137	2	0	1.07273	4	1	3	2	0	0	0	0	0	0	0	0	0	0	0;
	633	0	0	2	0	1.02727	5	0	4	3	0	0	0	0	0	0	0	0	0	0	0;
	663	1	-2.44968071	0.7	0	1.05455	2	1	2	1	0	0	0	0	0	0	0	0	0	0	0;
	663	0	0	0.7	0	1.05455	2	0	2	1	0	0	0	0	0	0	0	0	0	0	0;
	669	0	0	3	0	1.06364	6	0	4	3	0	0	0	0	0	0	0	0	0	0	0;
	740	52	7.70229064	35	2	1.05455	63	1	52	37	0	0	0	0	0	0	0	0	0	0	0;
	740	0	0	23	2	1.05455	38	0	30	10	0	0	0	0	0	0	0	0	0	0	0;
	740	0	0	85	6	1.05455	150	0	105	50	0	0	0	0	0	0	0	0	0	0	0;
	740	58	19.6509382	85	6	1.05455	150	1	105	50	0	0	0	0	0	0	0	0	0	0	0;
	741	0	0	23	2	1.05455	38	0	30	10	0	0	0	0	0	0	0	0	0	0	0;
	741	0	0	23	2	1.05455	38	0	30	10	0	0	0	0	0	0	0	0	0	0	0;
	741	30	9.62495963	25	2	1.05455	38	1	30	10	0	0	0	0	0	0	0	0	0	0	0;
	741	70	32.1900787	85	6	1.05455	150	1	125	68	0	0	0	0	0	0	0	0	0	0	0;
	741	0	0	85	6	1.05455	150	0	105	50	0	0	0	0	0	0	0	0	0	0	0;
	762	1.4	-5.03304545	0.7	0	1.04545	2	1	2	1	0	0	0	0	0	0	0	0	0	0	0;
	764	1	1.04237274	1	0	1.06364	4	1	1	0	0	0	0	0	0	0	0	0	0	0	0;
	772	0	0	18	2	1.05455	38	0	35	9	0	0	0	0	0	0	0	0	0	0	0;
	772	20	4.79057533	30	2	1.05455	38	1	20	9	0	0	0	0	0	0	0	0	0	0	0;
	773	0	0	18	2	1.05455	38	0	35	9	0	0	0	0	0	0	0	0	0	0	0;
	773	0	0	18	2	1.05455	38	0	35	9	0	0	0	0	0	0	0	0	0	0	0;
	773	0	0	18	2	1.05455	38	0	35	9	0	0	0	0	0	0	0	0	0	0	0;
	773	80	67.4247098	65	6	1.05455	121	1	97	30	0	0	0	0	0	0	0	0	0	0	0;
	774	0	0	18	2	1.05455	38	0	35	9	0	0	0	0	0	0	0	0	0	0	0;
	774	0	0	18	2	1.05455	38	0	30	9	0	0	0	0	0	0	0	0	0	0	0;
	774	0	0	14	2	1.05455	32	0	28	9	0	0	0	0	0	0	0	0	0	0	0;
	809	1	10.979119	4	0	1.07273	5	1	8	1	0	0	0	0	0	0	0	0	0	0	0;
	809	0	0	2	0	1.07273	2	0	2	1	0	0	0	0	0	0	0	0	0	0	0;
	829	0	0	4.5	0.2	1.04545	6	0	4	4	0	0	0	0	0	0	0	0	0	0	0;
	844	2.5	3.12662065	0	0	1.07273	6	1	3	0	0	0	0	0	0	0	0	0	0	0	0;
	853	0	0	0	0	1.06364	4	0	5	0	0	0	0	0	0	0	0	0	0	0	0;
	876	93	4.30264795	30	0	1.08182	65	1	93	0	0	0	0	0	0	0	0	0	0	0	0;
	876	12	4.30264795	30	0	1.08182	65	1	36	0	0	0	0	0	0	0	0	0	0	0	0;
	879	0	0	0	0	1.06364	12	0	3	0	0	0	0	0	0	0	0	0	0	0	0;
	886	0	0	0	0	1.08182	5	0	6	0	0	0	0	0	0	0	0	0	0	0	0;
	887	0	0	0	0	1.08182	6	0	6	0	0	0	0	0	0	0	0	0	0	0	0;
	922	205	34.4253884	149	-33	1.09091	235	1	225	135	0	0	0	0	0	0	0	0	0	0	0;
	923	0	0	149	-33	1.09091	235	0	225	110	0	0	0	0	0	0	0	0	0	0	0;
	931	0	0	0	0	1.07273	3	0	3	0	0	0	0	0	0	0	0	0	0	0	0;
	937	0	0	0	0	1.07273	12	0	12	0	0	0	0	0	0	0	0	0	0	0	0;
	947	0	0	30	0	1.07273	168	0	170	66	0	0	0	0	0	0	0	0	0	0	0;
	947	0	0	30	0	1.07273	72	0	61	34	0	0	0	0	0	0	0	0	0	0	0;
	953	0	0	0	0	1.07273	8	0	21	0	0	0	0	0	0	0	0	0	0	0	0;
	967	0	0	0	0	1.07273	6	0	7	0	0	0	0	0	0	0	0	0	0	0	0;
	970	0	0	0	0	1.08182	3	0	10	0	0	0	0	0	0	0	0	0	0	0	0;
	985	8.5	7.98466222	0	0	1.08182	3	1	30	0	0	0	0	0	0	0	0	0	0	0	0;
	990	0.3	8.54043818	0	0	1.06364	1	1	2	0	0	0	0	0	0	0	0	0	0	0	0;
	995	0	0	0	0	1.06364	1	0	2	0	0	0	0	0	0	0	0	0	0	0	0;
	1006	0	0	0	0	1.06364	2	0	2	1	0	0	0	0	0	0	0	0	0	0	0;
	1011	190	-2.24337064	120	-14	1.09091	235	1	225	129	0	0	0	0	0	0	0	0	0	0	0;
	1013	0	0	30	0	1.06364	37	0	36	0	0	0	0	0	0	0	0	0	0	0	0;
	1016	0	0	0	0	1.07273	3	0	3	2	0	0	0	0	0	0	0	0	0	0	0;
	1036	0	0	30	0	1.08182	101	0	101	49	0	0	0	0	0	0	0	0	0	0	0;
	1042	0	0	0	0	1.06364	2	0	12	0	0	0	0	0	0	0	0	0	0	0	0;
	1057	6.1	-5.99835494	30	0	1.07273	10	1	12	0	0	0	0	0	0	0	0	0	0	0	0;
	1060	0	0	0	0	1.08182	2	0	2	1	0	0	0	0	0	0	0	0	0	0	0;
	1062	0	0	0	0	1.07273	6	0	6	1	0	0	0	0	0	0	0	0	0	0	0;
	1067	5	-5.46642078	0	0	1.08182	11	1	8	0	0	0	0	0	0	0	0	0	0	0	0;
	1071	0	0	23	0	1.09091	52	0	68	5	0	0	0	0	0	0	0	0	0	0	0;
	1071	60	13.9404881	23	0	1.09091	52	1	68	5	0	0	0	0	0	0	0	0	0	0	0;
	1071	0	0	11	0	1.09091	25	0	31	-32	0	0	0	0	0	0	0	0	0	0	0;
	1071	0	0	10	0	1.09091	25	0	31	-32	0	0	0	0	0	0	0	0	0	0	0;
	1086	0	0	24	-1	1.08182	69	0	50	8	0	0	0	0	0	0	0	0	0	0	0;
	1086	110	8.20360012	74	-15	1.08182	58	1	125	92	0	0	0	0	0	0	0	0	0	0	0;
	1087	110	52.4321138	74	-15	1.08182	58	1	125	85	0	0	0	0	0	0	0	0	0	0	0;
	1087	0	0	28	-2	1.08182	40	0	41	12	0	0	0	0	0	0	0	0	0	0	0;
	1099	0	0	0	0	1.08182	3	0	3	0	0	0	0	0	0	0	0	0	0	0	0;
	1126	0	0	0	0	1.06364	4	0	3	2	0	0	0	0	0	0	0	0	0	0	0;
	1132	31	6.78540349	0	0	1.08182	31	1	31	0	0	0	0	0	0	0	0	0	0	0	0;
...
];

%% branch data
%	fbus	tbus	r	x	b	rateA	rateB	rateC	ratio	angle	status	angmin	angmax	Pf	Qf	Pt	Qt
mpc.branch = [
	9	11	0.00064	0.0305	0	400	400	400	1.09271	0	1	-360	360	-233.4712	-95.9205	233.8989	116.3017;
	13	12	0.00069	0.03946	0	250	250	250	0.9999	0	1	-360	360	-190.4554	-56.5480	190.7369	72.6441;
	20	18	0.00088	0.05709	0	330	330	330	0.9999	0	1	-360	360	-288.4681	-11.2732	289.2175	59.8900;
	34	33	0.0007	0.03652	0	250	250	250	0.9999	0	1	-360	360	-164.5227	-9.0927	164.7130	19.0188;
	35	37	0.00036	0.02519	0	500	500	500	1.07313	0	1	-360	360	-174.5796	-71.7402	174.7027	80.3521;
	36	38	0.00036	0.02519	0	500	500	500	1.07313	0	1	-360	360	-43.0059	-76.9872	43.0328	78.8671;
	53	54	0.00034	0.02097	0	500	500	500	1.0755	0	1	-360	360	-75.4831	-69.3513	75.5183	71.5241;
	57	59	0.00034	0.02097	0	500	500	500	1.07313	0	1	-360	360	-22.9002	-88.9344	22.9280	90.6458;
	68	70	0.00081	0.03	0	400	400	400	1.10102	0	1	-360	360	105.9582	-151.6028	-105.6736	162.1448;
	105	107	0.00075	0.02445	-0.00832	330	330	330	1.039	0	1	-360	360	-75.6982	6.1363	75.7383	-3.9338;
	106	108	0.0004	0.0253	0	500	500	500	1.0457	0	1	-360	360	-73.8176	-22.8311	73.8399	24.2477;
	142	145	0.00053	0.02875	-0.016	400	400	400	1.06299	0	1	-360	360	59.0545	-69.6569	-59.0113	73.6936;
	170	171	0.00064	0.0305	0	400	400	400	1.07408	0	1	-360	360	-421.6010	-48.6427	422.7373	102.7941;
	177	180	0.00023	0.023	0	500	500	500	1.07426	0	1	-360	360	-89.0436	-62.2747	89.0699	64.9080;
	178	181	0.00023	0.023	0	500	500	500	1.07426	0	1	-360	360	-88.7605	-61.8140	88.7866	64.4233;
	185	184	0.00032	0.04392	0	330	330	330	0.9999	0	1	-360	360	-276.6015	-61.7607	276.8716	98.8362;
	188	190	0.0003	0.02732	0	500	500	500	1.10037	0	1	-360	360	-361.5080	-141.2164	362.0000	186.0223;
	195	197	0.00035	0.02375	0	500	500	500	1.08671	0	1	-360	360	-241.5761	-163.1802	241.9234	186.7466;
	208	209	0.00051	0.0275	0	400	400	400	1.07702	0	1	-360	360	-81.6521	-88.7338	81.7247	92.6444;
	213	211	0.00084	0.06858	0	250	250	250	0.9999	0	1	-360	360	-153.0103	-19.1186	153.2085	35.2988;
	216	218	0.00033	0.02711	0	500	500	500	1.08613	0	1	-360	360	-159.9091	-154.2006	160.0914	169.1767;
	220	218	0.00032	0.0464	0	330	330	330	0.9999	0	1	-360	360	-213.5256	36.3554	213.6751	-14.6813;
	227	225	0.00113	0.05647	0	330	330	330	0.9999	0	1	-360	360	-85.6252	7.6903	85.7056	-3.6714;
	224	226	0.00075	0.02469	-0.008	330	330	330	1.04544	0	1	-360	360	26.9440	-59.7822	-26.9115	61.6664;
	3116	180	0.00029	0.00317	0.09184	1386	1386	1386	0	0	1	-360	360	-0.6792	-119.0788	0.7151	109.7615;
	3116	181	0.0003	0.00326	0.09536	1386	1386	1386	0	0	1	-360	360	0.6792	-112.8892	-0.6460	103.1681;
	240	82	0.01475	0.08595	0.13036	339	339	339	0	0	1	-360	360	216.0000	15.6031	-210.1498	3.4533;
	3114	90	0.01244	0.06959	0.10842	412	412	412	0	0	1	-360	360	-140.2297	28.4068	142.6125	-26.8556;
	3114	120	0.01207	0.06905	0.11519	412	412	412	0	0	1	-360	360	-265.7703	3.7281	273.6171	28.1545;
	144	3115	0.00168	0.01603	0.51488	1206	1206	1206	0	0	1	-360	360	77.0946	-38.4421	-77.0000	-16.1033;
	3117	169	0.0018	0.01616	0.0484	436	436	436	0	0	1	-360	360	-315.8295	44.6187	317.3961	-36.2229;
	3117	170	0.0018	0.01616	0.0484	436	436	436	0	0	1	-360	360	-318.1705	44.9855	319.7604	-36.3803;
	3118	61	0.00223	0.02209	0.69011	831	831	831	0	0	1	-360	360	-0.0595	-57.8498	0.0680	-17.3642;
	3118	62	0.00223	0.02209	0.69011	831	831	831	0	0	1	-360	360	0.0595	-57.8159	-0.0510	-17.3976;
	97	3113	0.00293	0.03054	0.95472	1206	1206	1206	0	0	1	-360	360	40.0573	-73.7692	-40.0000	-28.9429;
	56	28	0.01174	0.07014	0.12689	339	339	339	0	0	1	-360	360	255.2737	82.5221	-248.0450	-53.4510;
	35	105	0.00919	0.06614	0.10451	375	375	375	0	0	1	-360	360	-2.5547	20.0250	2.6082	-32.0037;
	36	106	0.00822	0.05767	0.0982	400	400	400	0	0	1	-360	360	59.9241	16.0624	-59.6451	-25.7221;
	167	39	0.01698	0.12459	0.1957	231	231	231	0	0	1	-360	360	32.0753	21.4202	-31.7583	-39.9297;
	153	46	0.01298	0.06738	0.10284	250	250	250	0	0	1	-360	360	-71.2564	40.6734	72.0804	-47.9181;
	152	25	0.01068	0.0475	0.09495	339	339	339	0	0	1	-360	360	-217.4652	59.9224	222.2913	-49.2685;
	188	26	0.01436	0.10729	0.16081	231	231	231	0	0	1	-360	360	65.5051	22.8633	-64.8204	-34.9758;
	53	124	0.01488	0.08161	0.1148	266	266	266	0	0	1	-360	360	-55.9153	16.6688	56.3814	-27.4667;
	52	106	0.01116	0.07171	0.10367	267	267	267	0	0	1	-360	360	-68.0035	10.8121	68.4707	-19.9334;
	203	98	0.00552	0.05948	0.17077	317	317	317	0	0	1	-360	360	-195.0757	19.4565	197.0578	-16.5907;
	234	189	0.01118	0.06597	0.10778	267	267	267	0	0	1	-360	360	-247.7620	-32.1021	254.7511	61.9965;
	221	188	0.01682	0.08909	0.12993	295	295	295	0	0	1	-360	360	-201.8617	-2.5350	208.5935	24.3496;
	222	189	0.01384	0.08702	0.13484	295	295	295	0	0	1	-360	360	-207.4879	-8.7815	213.3385	31.2035;
	238	192	0.01517	0.09938	0.14492	197	197	197	0	0	1	-360	360	-30.6161	50.2010	31.2118	-61.5058;
	57	14	0.01457	0.07362	0.13344	356	356	356	0	0	1	-360	360	266.2328	73.4222	-256.7446	-40.2882;
	229	23	0.01403	0.10413	0.15949	231	231	231	0	0	1	-360	360	-157.8872	-3.6899	161.1242	9.9914;
	115	68	0.00374	0.0438	0.10096	476	476	476	0	0	1	-360	360	-103.8912	-17.2360	104.2432	9.5417;
	187	97	0.00194	0.02007	0.54307	970	970	970	0	0	1	-360	360	-593.2571	-70.5234	599.9723	83.0147;
	58	12	0.0015	0.01506	0.4032	1154	1154	1154	0	0	1	-360	360	629.8491	111.0018	-624.0479	-94.9421;
	210	171	0.00296	0.03484	0.9296	838	838	838	0	0	1	-360	360	-211.7960	-13.9847	213.0686	-70.4718;
	136	70	0.00169	0.01931	0.53814	866	866	866	0	0	1	-360	360	-41.7774	27.9262	41.8554	-84.9500;
	38	108	0.00137	0.01569	0.43744	1154	1154	1154	0	0	1	-360	360	139.6427	-25.5120	-139.3957	-18.9111;
	37	139	0.00234	0.02677	0.74653	1154	1154	1154	0	0	1	-360	360	101.4920	-55.9545	-101.2639	-22.3410;
	32	218	0.00217	0.02513	0.67098	1154	1154	1154	0	0	1	-360	360	649.9698	21.9016	-640.8402	16.9424;
	136	78	0.00152	0.01739	0.48083	866	866	866	0	0	1	-360	360	10.1343	-34.1912	-10.1319	-18.0818;
	138	78	0.00468	0.05347	1.48883	831	831	831	0	0	1	-360	360	66.5705	-88.4192	-66.3770	-71.2680;
	97	41	0.00355	0.03617	0.95894	717	717	717	0	0	1	-360	360	169.5825	-52.9057	-168.6339	-40.2809;
	107	41	0.00097	0.01052	0.28395	970	970	970	0	0	1	-360	360	131.8378	20.8626	-131.6697	-49.5291;
	61	137	0.00144	0.01446	0.51213	1386	1386	1386	0	0	1	-360	360	-44.4010	7.8011	44.4438	-63.2497;
	15	6	0.013	0.09781	0.14013	375	375	375	0	0	1	-360	360	-173.7700	-16.4624	177.5956	30.1817;
	40	15	0.00525	0.03847	0.06053	231	231	231	0	0	1	-360	360	-74.2532	-3.2154	74.5369	-0.9081;
	31	6	0.00457	0.03351	0.05245	317	317	317	0	0	1	-360	360	196.5780	19.2004	-195.0226	-13.7509;
	22	9	0.01469	0.10915	0.16676	317	317	317	0	0	1	-360	360	-74.7060	4.5629	75.4500	-18.0400;
	27	14	0.01262	0.09326	0.14324	231	231	231	0	0	1	-360	360	-63.3628	3.7273	63.8696	-14.7357;
	35	7	0.00924	0.05052	0.07698	295	295	295	0	0	1	-360	360	214.8832	44.9335	-211.1387	-33.3936;
	22	3	0.01068	0.07936	0.12155	231	231	231	0	0	1	-360	360	146.2366	-21.1322	-144.2160	22.2565;
	35	25	0.00585	0.04027	0.07161	400	400	400	0	0	1	-360	360	226.7178	51.4630	-224.0605	-41.5349;
	36	24	0.00585	0.04027	0.07161	400	400	400	0	0	1	-360	360	315.3668	46.9700	-310.3902	-21.0763;
	14	8	0.00558	0.04147	0.0629	231	231	231	0	0	1	-360	360	-43.4572	-124.7279	44.3597	124.6190;
	43	15	0.00089	0.0063	0.0108	231	231	231	0	0	1	-360	360	-103.5700	-58.8889	103.6933	58.6555;
	29	15	0.00442	0.02374	0.04477	339	339	339	0	0	1	-360	360	61.3906	-1.2436	-61.2296	-2.5112;
	45	7	0.00494	0.0269	0.04225	250	250	250	0	0	1	-360	360	-143.9945	-12.8647	144.9310	13.2734;
	24	6	0.00287	0.01671	0.02467	295	295	295	0	0	1	-360	360	102.5216	26.5997	-102.2362	-27.7220;
	35	1	0.0012	0.0089	0.01512	461	461	461	0	0	1	-360	360	48.3733	66.9483	-48.3038	-68.2377;
	36	2	0.0012	0.0089	0.01513	461	461	461	0	0	1	-360	360	47.0479	23.9105	-47.0196	-25.5121;
	36	30	0.00399	0.02901	0.04808	380	380	380	0	0	1	-360	360	264.3072	55.6951	-261.8703	-43.6273;
	32	12	0.00298	0.03445	0.94221	831	831	831	0	0	1	-360	360	-163.2473	-43.0382	164.0331	-43.6447;
	37	32	0.00358	0.04122	1.13382	1154	1154	1154	0	0	1	-360	360	666.5823	53.6049	-651.4382	2.1015;
	19	38	0.00342	0.03928	1.08288	1154	1154	1154	0	0	1	-360	360	-483.9371	-40.7391	491.7623	16.5814;
	11	21	0.00286	0.03355	0.90157	838	838	838	0	0	1	-360	360	229.6756	-38.3007	-228.1964	-35.8468;
	44	21	0.00023	0.00264	0.07296	838	838	838	0	0	1	-360	360	-0.0000	-0.0000	0.0000	-7.3595;
	11	19	0.0011	0.01271	0.35206	838	838	838	0	0	1	-360	360	-194.3040	-12.1034	194.7111	-19.2020;
	184	38	0.00139	0.0159	0.44176	838	838	838	0	0	1	-360	360	-650.4058	-113.7139	656.2617	134.1950;
	77	72	0.01054	0.06151	0.09306	197	197	197	0	0	1	-360	360	11.6218	3.7862	-11.6020	-14.4898;
	74	69	0.00905	0.06723	0.10296	231	231	231	0	0	1	-360	360	-117.9332	-1.3107	119.0204	-2.6579;
	81	47	0.0114	0.06587	0.09975	274	274	274	0	0	1	-360	360	97.1341	-6.3115	-96.2027	0.2633;
	64	47	0.0107	0.06628	0.10825	287	287	287	0	0	1	-360	360	21.9607	-29.7083	-21.8601	18.1706;
	72	55	0.00543	0.03733	0.06668	341	341	341	0	0	1	-360	360	-46.8999	-42.3839	47.0730	35.7528;
	73	57	0.00543	0.03733	0.06668	341	341	341	0	0	1	-360	360	-47.3038	-42.3184	47.4784	35.6979;
	73	47	0.00657	0.0481	0.0727	319	319	319	0	0	1	-360	360	-9.3255	16.6923	9.3553	-24.8086;
	82	65	0.00302	0.0201	0.03069	339	339	339	0	0	1	-360	360	132.9619	-3.7828	-132.4836	3.5505;
	65	51	0.007	0.05138	0.08084	231	231	231	0	0	1	-360	360	70.5390	10.5277	-70.2109	-16.9944;
	49	68	0.00329	0.02506	0.0439	317	317	317	0	0	1	-360	360	-134.7645	-8.9466	135.2776	7.7026;
	50	48	0.00789	0.05868	0.08985	231	231	231	0	0	1	-360	360	63.9776	8.3146	-63.6885	-16.5393;
	69	50	0.00558	0.04062	0.06491	341	341	341	0	0	1	-360	360	84.3575	1.9617	-84.0194	-7.1189;
	81	49	0.00452	0.03366	0.05156	341	341	341	0	0	1	-360	360	-101.2871	-6.1853	101.6890	3.1929;
	81	80	0.00134	0.00996	0.01337	287	287	287	0	0	1	-360	360	4.1529	12.4968	-4.1507	-14.0222;
	76	55	0.00618	0.04353	0.07649	341	341	341	0	0	1	-360	360	-23.8387	-24.5595	23.8900	15.8970;
	77	56	0.00618	0.04353	0.07649	266	266	266	0	0	1	-360	360	-23.2985	-24.6297	23.3486	15.9588;
	76	52	0.01219	0.0637	0.09333	266	266	266	0	0	1	-360	360	-85.7877	10.4864	86.5813	-17.2697;
	75	53	0.00246	0.01826	0.02798	231	231	231	0	0	1	-360	360	-23.7966	-34.7604	23.8319	31.7591;
	60	52	0.00242	0.01531	0.02249	287	287	287	0	0	1	-360	360	-84.8518	-27.9397	85.0167	26.3595;
	63	59	0.0017	0.01977	0.53386	838	838	838	0	0	1	-360	360	-103.1362	-41.8569	103.3094	-13.0704;
	71	67	0.00116	0.013	0.33856	838	838	838	0	0	1	-360	360	315.1950	-29.0739	-314.1126	5.1596;
	54	70	0.00218	0.02536	0.68579	838	838	838	0	0	1	-360	360	-75.5183	-71.5241	75.6641	0.8659;
	78	71	0.00105	0.01123	0.28195	1119	1119	1119	0	0	1	-360	360	-86.7670	95.7294	86.9585	-124.0607;
	62	79	0.00119	0.01428	0.36666	1154	1154	1154	0	0	1	-360	360	-32.8158	5.9764	32.8349	-45.7970;
	66	58	0.00184	0.02139	0.5777	838	838	838	0	0	1	-360	360	148.4859	-59.9396	-148.0895	2.8946;
	111	142	0.00488	0.03362	0.05961	341	341	341	0	0	1	-360	360	-102.4763	-58.9883	103.0680	56.2337;
	89	122	0.01093	0.05919	0.08439	180	180	180	0	0	1	-360	360	14.0099	-8.0461	-13.9907	-1.7232;
	122	109	0.00194	0.01415	0.0223	341	341	341	0	0	1	-360	360	-5.7002	40.0506	5.7291	-42.4370;
	93	148	0.00192	0.01355	0.023	341	341	341	0	0	1	-360	360	-42.4033	17.7092	42.4388	-20.1468;
	148	100	0.00238	0.01667	0.02846	341	341	341	0	0	1	-360	360	-42.4388	20.1468	42.4852	-23.1349;
	149	147	0.00066	0.00496	0.00758	319	319	319	0	0	1	-360	360	115.7383	23.5360	-115.6591	-23.8203;
	121	149	0.00537	0.04039	0.06005	319	319	319	0	0	1	-360	360	119.1276	-7.7970	-118.4756	5.6951;
	106	149	0.00083	0.00525	0.00868	250	250	250	0	0	1	-360	360	-2.7314	28.2578	2.7373	-29.2310;
	115	135	0.01589	0.0832	0.11439	266	266	266	0	0	1	-360	360	-13.3380	2.1574	13.3729	-15.1922;
	95	128	0.00217	0.01459	0.02575	197	197	197	0	0	1	-360	360	27.8898	-11.1934	-27.8730	8.4020;
	132	116	0.01773	0.11678	0.16361	250	250	250	0	0	1	-360	360	40.4566	-14.7529	-40.2024	-2.5617;
	143	88	0.00593	0.04093	0.07215	341	341	341	0	0	1	-360	360	60.4890	-11.4329	-60.3009	4.2894;
	123	105	0.0039	0.02847	0.04498	317	317	317	0	0	1	-360	360	-6.3310	-23.5661	6.3472	18.4681;
	134	93	0.00816	0.04242	0.0612	314	314	314	0	0	1	-360	360	-107.8815	-3.6289	108.7068	0.8167;
	135	92	0.00816	0.04242	0.0612	314	314	314	0	0	1	-360	360	-113.2450	-2.8011	114.1547	0.4288;
	93	90	0.00519	0.03839	0.05875	400	400	400	0	0	1	-360	360	157.2309	92.4332	-155.7270	-87.9332;
	92	87	0.00213	0.01403	0.0226	250	250	250	0	0	1	-360	360	137.0960	71.1403	-136.6583	-70.8735;
	129	92	0.00463	0.02775	0.04612	267	267	267	0	0	1	-360	360	-44.8341	-68.7147	45.0957	64.9806;
	118	86	0.01122	0.07074	0.11571	180	180	180	0	0	1	-360	360	-62.6583	-55.4958	63.3336	47.0170;
	125	133	0.00601	0.04147	0.07364	308	308	308	0	0	1	-360	360	-138.0296	-76.4726	139.3825	77.5589;
	106	83	0.00207	0.01279	0.02055	197	197	197	0	0	1	-360	360	82.1663	31.0132	-82.0280	-32.5431;
	101	105	0.00136	0.0099	0.01586	400	400	400	0	0	1	-360	360	-52.2643	-18.2013	52.2998	16.6143;
	146	102	0.00058	0.00417	0.00684	341	341	341	0	0	1	-360	360	-13.4610	-21.6708	13.4642	20.9001;
	150	90	0.00085	0.00632	0.00931	457	457	457	0	0	1	-360	360	-0.0000	0.7900	0.0000	-1.7999;
	151	91	0.00085	0.00612	0.00964	457	457	457	0	0	1	-360	360	-0.0000	0.7900	0.0000	-1.8352;
	117	91	0.00159	0.01112	0.01913	396	396	396	0	0	1	-360	360	-12.9002	-118.9653	13.1119	118.3973;
	142	119	0.00314	0.02159	0.03839	341	341	341	0	0	1	-360	360	82.5746	-13.6015	-82.3882	10.3903;
	143	126	0.00455	0.03157	0.05531	231	231	231	0	0	1	-360	360	109.2347	60.8887	-108.6109	-62.8983;
	119	99	0.00145	0.01008	0.01719	231	231	231	0	0	1	-360	360	117.1300	25.9202	-116.9510	-26.6805;
	120	110	0.00384	0.02721	0.04517	231	231	231	0	0	1	-360	360	51.2056	11.5966	-51.1129	-16.2002;
	127	94	0.00777	0.04128	0.06391	197	197	197	0	0	1	-360	360	30.7463	-16.0612	-30.6700	9.2817;
	104	92	0.00446	0.03041	0.04867	180	180	180	0	0	1	-360	360	-1.9534	-27.7389	1.9775	22.2450;
	133	123	0.00589	0.03506	0.05235	267	267	267	0	0	1	-360	360	83.9596	-6.0285	-83.6014	2.1039;
	124	114	0.00316	0.02378	0.03527	231	231	231	0	0	1	-360	360	-73.5760	-6.2074	73.7248	3.2461;
	132	93	0.00184	0.0126	0.0224	231	231	231	0	0	1	-360	360	-84.9492	-26.7955	85.0739	25.0388;
	121	103	0.00171	0.00961	0.01424	250	250	250	0	0	1	-360	360	80.4862	64.4733	-80.3292	-65.2469;
	113	93	0.00341	0.02442	0.03997	317	317	317	0	0	1	-360	360	-93.1357	-8.4937	93.3917	5.6688;
	133	92	0.00184	0.0126	0.02239	231	231	231	0	0	1	-360	360	-103.4977	-24.5449	103.6761	23.1572;
	98	112	0.0057	0.04149	0.06617	341	341	341	0	0	1	-360	360	-81.0101	-37.2227	81.4151	32.8777;
	141	134	0.00461	0.02492	0.0356	266	266	266	0	0	1	-360	360	-121.9734	-133.4593	123.3574	136.9841;
	140	125	0.00215	0.01333	0.02211	250	250	250	0	0	1	-360	360	-46.8454	-23.8085	46.8997	21.7665;
	115	85	0.00079	0.00488	0.00726	137	137	137	0	0	1	-360	360	13.8915	4.1866	-13.8900	-5.0200;
	116	84	0.00079	0.00488	0.00724	137	137	137	0	0	1	-360	360	6.4103	1.1716	-6.4100	-2.0100;
	108	144	0.00241	0.02782	0.77066	1154	1154	1154	0	0	1	-360	360	-142.0244	-22.2895	142.4833	-55.4597;
	97	145	0.00213	0.02432	0.67744	1240	1240	1240	0	0	1	-360	360	33.1806	-39.2035	-33.1587	-33.4608;
	138	130	0.00091	0.0104	0.28989	838	838	838	0	0	1	-360	360	-148.7932	82.1813	149.0591	-110.3698;
	139	137	0.00312	0.03563	0.99107	831	831	831	0	0	1	-360	360	94.6737	-61.5738	-94.4144	-43.1196;
	130	145	0.00092	0.01051	0.29293	838	838	838	0	0	1	-360	360	-273.9420	-24.9672	274.5888	0.9423;
	198	177	0.01039	0.08983	0.11422	375	375	375	0	0	1	-360	360	-240.8437	-69.9241	247.4863	115.0067;
	199	178	0.01039	0.08983	0.11422	375	375	375	0	0	1	-360	360	-240.7508	-69.9517	247.3890	114.9960;
	201	177	0.01455	0.0813	0.13279	267	267	267	0	0	1	-360	360	-111.5483	-43.4979	113.3847	38.6199;
	202	178	0.01455	0.0813	0.13279	267	267	267	0	0	1	-360	360	-111.8521	-43.4846	113.6976	38.6584;
	156	202	0.00519	0.03965	0.05836	317	317	317	0	0	1	-360	360	-99.4048	-69.2048	100.1272	68.5527;
	156	166	0.00083	0.00645	0.00951	317	317	317	0	0	1	-360	360	86.9125	68.0401	-86.8133	-68.2390;
	189	161	0.01105	0.08107	0.12824	341	341	341	0	0	1	-360	360	121.6073	46.1979	-119.8553	-46.9466;
	157	177	0.00597	0.04473	0.06735	317	317	317	0	0	1	-360	360	-153.3126	-45.7851	154.6479	47.9780;
	196	198	0.01736	0.10969	0.16268	287	287	287	0	0	1	-360	360	-71.3609	24.3319	72.4170	-33.7911;
	173	199	0.00938	0.06093	0.08934	339	339	339	0	0	1	-360	360	-132.8907	-17.8907	134.7045	21.2072;
	176	178	0.01246	0.09134	0.14349	400	400	400	0	0	1	-360	360	-324.0292	-21.8589	337.2403	103.0474;
	154	158	0.00514	0.03826	0.05933	231	231	231	0	0	1	-360	360	-77.8564	-39.8678	78.2047	35.8692;
	169	164	0.01062	0.0789	0.12085	317	317	317	0	0	1	-360	360	-70.8128	73.2099	71.8527	-78.9907;
	175	205	0.00769	0.0569	0.08673	231	231	231	0	0	1	-360	360	-69.5965	46.9482	70.1756	-51.0716;
	175	204	0.00225	0.01667	0.02541	286	286	286	0	0	1	-360	360	0.0016	-9.6824	0.0000	7.1700;
	196	168	0.01851	0.1088	0.14435	250	250	250	0	0	1	-360	360	-86.2888	-33.0062	87.7726	26.4259;
	200	195	0.00236	0.01411	0.02031	229	229	229	0	0	1	-360	360	-103.8883	-46.7965	104.1945	46.5914;
	195	161	0.00355	0.02607	0.04096	341	341	341	0	0	1	-360	360	22.4762	-1.0129	-22.4584	-2.9952;
	196	191	0.013	0.07589	0.11484	267	267	267	0	0	1	-360	360	177.3302	-15.3085	-173.2761	27.4378;
	195	174	0.00934	0.0539	0.08683	287	287	287	0	0	1	-360	360	13.5761	77.0347	-12.9468	-81.8024;
	168	152	0.00698	0.0374	0.05463	314	314	314	0	0	1	-360	360	-211.1301	1.2277	213.9370	7.6669;
	167	153	0.00436	0.03202	0.0503	400	400	400	0	0	1	-360	360	-247.7736	-10.2376	250.1898	22.3233;
	188	168	0.0006	0.00351	0.00555	341	341	341	0	0	1	-360	360	-49.4949	53.5087	49.5238	-53.9562;
	189	167	0.0006	0.00351	0.00555	341	341	341	0	0	1	-360	360	-62.8762	56.5715	62.9150	-56.9610;
	176	164	0.01058	0.07762	0.12203	231	231	231	0	0	1	-360	360	163.6702	-63.1541	-160.4664	74.1064;
	182	169	0.00469	0.03486	0.05338	317	317	317	0	0	1	-360	360	-102.5828	-48.4558	103.1064	46.2141;
	170	162	0.00568	0.04012	0.07033	317	317	317	0	0	1	-360	360	96.8776	41.3177	-96.3219	-45.4624;
	193	162	0.00105	0.00733	0.01258	231	231	231	0	0	1	-360	360	-31.9671	-25.6452	31.9825	24.3409;
	194	182	0.00744	0.05397	0.09307	231	231	231	0	0	1	-360	360	-8.9207	-10.9376	8.9282	0.5318;
	202	155	0.00221	0.01618	0.02541	231	231	231	0	0	1	-360	360	45.5667	-15.1699	-45.5207	12.7336;
	203	201	0.00525	0.03837	0.06052	231	231	231	0	0	1	-360	360	82.6985	-22.8140	-82.3484	18.7979;
	206	198	0.00236	0.01746	0.02676	341	341	341	0	0	1	-360	360	-185.6800	-44.6965	186.5862	48.8332;
	180	159	0.00274	0.02778	0.69846	717	717	717	0	0	1	-360	360	195.5711	33.4773	-194.4548	-94.6272;
	186	160	0.00171	0.01741	0.45456	717	717	717	0	0	1	-360	360	173.7421	-15.2250	-173.2359	-25.8979;
	184	187	0.00136	0.01599	0.41965	1240	1240	1240	0	0	1	-360	360	-53.5395	-11.2558	53.5790	-31.2082;
	197	172	0.00373	0.04344	1.172	831	831	831	0	0	1	-360	360	263.4102	-200.3572	-259.8253	124.4770;
	214	222	0.02738	0.14254	0.20047	222	222	222	0	0	1	-360	360	-73.7708	5.2124	75.3100	-17.5321;
	228	234	0.02709	0.15992	0.26125	197	197	197	0	0	1	-360	360	-33.6017	20.8483	34.1910	-44.4706;
	215	239	0.01909	0.11277	0.16673	197	197	197	0	0	1	-360	360	-27.3495	-42.9198	27.7159	27.4872;
...
];

%%-----  OPF Data  -----%%
%% generator cost data
%	1	startup	shutdown	n	x1	y1	...	xn	yn
%	2	startup	shutdown	n	c(n-1)	...	c0
mpc.gencost = [
	2	0	0	3	0	158.61	0;
	2	0	0	3	0	158.61	0;
	2	0	0	3	0	107.03	0;
	2	0	0	3	0	107.03	0;
	2	0	0	3	0	107.03	0;
	2	0	0	3	0	107.03	0;
	2	0	0	3	0	107.03	0;
	2	0	0	3	0	107.03	0;
	2	0	0	3	0	107.03	0;
	2	0	0	3	0	107.03	0;
	2	0	0	3	0	107.03	0;
	2	0	0	3	0	107.03	0;
	2	0	0	3	0	107.03	0;
	2	0	0	3	0	143.52	0;
	2	0	0	3	0	143.52	0;
	2	0	0	3	0	143.52	0;
	2	0	0	3	0	143.52	0;
	2	0	0	3	0	143.52	0;
	2	0	0	3	0	143.52	0;
	2	0	0	3	0	143.52	0;
	2	0	0	3	0	143.52	0;
	2	0	0	3	0	148.16	0;
	2	0	0	3	0	148.16	0;
	2	0	0	3	0	148.16	0;
	2	0	0	3	0	148.16	0;
	2	0	0	3	0	148.16	0;
	2	0	0	3	0	148.16	0;
	2	0	0	3	0	148.16	0;
	2	0	0	3	0	134.04	0;
	2	0	0	3	0	134.04	0;
	2	0	0	3	0	134.04	0;
	2	0	0	3	0	134.04	0;
	2	0	0	3	0	134.04	0;
	2	0	0	3	0	126.62	0;
	2	0	0	3	0	126.62	0;
	2	0	0	3	0	0	0;
	2	0	0	3	0	0	0;
	2	0	0	3	0	0	0;
	2	0	0	3	0	130.49	0;
	2	0	0	3	0	130.49	0;
	2	0	0	3	0	132.33	0;
	2	0	0	3	0	132.33	0;
	2	0	0	3	0	136.59	0;
	2	0	0	3	0	136.59	0;
	2	0	0	3	0	139.96	0;
	2	0	0	3	0	128.21	0;
	2	0	0	3	0	128.21	0;
	2	0	0	3	0	128.21	0;
	2	0	0	3	0	128.21	0;
	2	0	0	3	0	128.21	0;
	2	0	0	3	0	137.4	0;
	2	0	0	3	0	137.4	0;
	2	0	0	3	0	137.4	0;
	2	0	0	3	0	137.4	0;
	2	0	0	3	0	129.99	0;
	2	0	0	3	0	129.99	0;
	2	0	0	3	0	129.99	0;
	2	0	0	3	0	135.6	0;
	2	0	0	3	0	163.16	0;
	2	0	0	3	0	163.16	0;
	2	0	0	3	0	163.16	0;
	2	0	0	3	0	163.16	0;
	2	0	0	3	0	163.16	0;
	2	0	0	3	0	163.16	0;
	2	0	0	3	0	163.16	0;
	2	0	0	3	0	139.01	0;
	2	0	0	3	0	139.01	0;
	2	0	0	3	0	139.01	0;
	2	0	0	3	0	139.01	0;
	2	0	0	3	0	139.01	0;
	2	0	0	3	0	139.01	0;
	2	0	0	3	0	139.01	0;
	2	0	0	3	0	139.01	0;
	2	0	0	3	0	125.48	0;
	2	0	0	3	0	125.48	0;
	2	0	0	3	0	125.48	0;
	2	0	0	3	0	125.48	0;
	2	0	0	3	0	125.48	0;
	2	0	0	3	0	137.4	0;
	2	0	0	3	0	137.4	0;
	2	0	0	3	0	137.4	0;
	2	0	0	3	0	137.4	0;
	2	0	0	3	0	137.4	0;
	2	0	0	3	0	0	0;
	2	0	0	3	0	0	0;
	2	0	0	3	0	0	0;
	2	0	0	3	0	0	0;
	2	0	0	3	0	0	0;
	2	0	0	3	0	0	0;
	2	0	0	3	0	0	0;
	2	0	0	3	0	0	0;
	2	0	0	3	0	0	0;
	2	0	0	3	0	0	0;
	2	0	0	3	0	0	0;
	2	0	0	3	0	0	0;
	2	0	0	3	0	0	0;
	2	0	0	3	0	107.03	0;
	2	0	0	3	0	0	0;
	2	0	0	3	0	0	0;
	2	0	0	3	0	0	0;
	2	0	0	3	0	0	0;
	2	0	0	3	0	0	0;
	2	0	0	3	0	0	0;
	2	0	0	3	0	0	0;
	2	0	0	3	0	0	0;
	2	0	0	3	0	0	0;
	2	0	0	3	0	0	0;
	2	0	0	3	0	0	0;
	2	0	0	3	0	0	0;
	2	0	0	3	0	0	0;
	2	0	0	3	0	0	0;
	2	0	0	3	0	0	0;
	2	0	0	3	0	0	0;
	2	0	0	3	0	0	0;
	2	0	0	3	0	0	0;
	2	0	0	3	0	0	0;
	2	0	0	3	0	0	0;
	2	0	0	3	0	0	0;
	2	0	0	3	0	0	0;
	2	0	0	3	0	0	0;
	2	0	0	3	0	0	0;
	2	0	0	3	0	0	0;
	2	0	0	3	0	158.61	0;
	2	0	0	3	0	158.61	0;
	2	0	0	3	0	158.61	0;
	2	0	0	3	0	0	0;
	2	0	0	3	0	0	0;
	2	0	0	3	0	0	0;
	2	0	0	3	0	0	0;
	2	0	0	3	0	0	0;
	2	0	0	3	0	0	0;
	2	0	0	3	0	0	0;
	2	0	0	3	0	0	0;
	2	0	0	3	0	0	0;
	2	0	0	3	0	0	0;
	2	0	0	3	0	0	0;
	2	0	0	3	0	0	0;
	2	0	0	3	0	0	0;
	2	0	0	3	0	0	0;
	2	0	0	3	0	0	0;
	2	0	0	3	0	0	0;
	2	0	0	3	0	0	0;
	2	0	0	3	0	0	0;
	2	0	0	3	0	0	0;
	2	0	0	3	0	0	0;
	2	0	0	3	0	0	0;
	2	0	0	3	0	0	0;
	2	0	0	3	0	0	0;
	2	0	0	3	0	0	0;
	2	0	0	3	0	0	0;
	2	0	0	3	0	0	0;
	2	0	0	3	0	0	0;
	2	0	0	3	0	0	0;
	2	0	0	3	0	0	0;
	2	0	0	3	0	0	0;
	2	0	0	3	0	0	0;
	2	0	0	3	0	0	0;
	2	0	0	3	0	0	0;
	2	0	0	3	0	0	0;
	2	0	0	3	0	0	0;
	2	0	0	3	0	0	0;
	2	0	0	3	0	0	0;
	2	0	0	3	0	0	0;
	2	0	0	3	0	0	0;
	2	0	0	3	0	0	0;
	2	0	0	3	0	0	0;
	2	0	0	3	0	0	0;
	2	0	0	3	0	143.52	0;
	2	0	0	3	0	143.52	0;
	2	0	0	3	0	0	0;
	2	0	0	3	0	0	0;
	2	0	0	3	0	0	0;
	2	0	0	3	0	0	0;
	2	0	0	3	0	0	0;
	2	0	0	3	0	0	0;
	2	0	0	3	0	0	0;
	2	0	0	3	0	0	0;
	2	0	0	3	0	0	0;
	2	0	0	3	0	0	0;
	2	0	0	3	0	0	0;
	2	0	0	3	0	148.16	0;
	2	0	0	3	0	0	0;
	2	0	0	3	0	0	0;
	2	0	0	3	0	0	0;
	2	0	0	3	0	0	0;
	2	0	0	3	0	0	0;
	2	0	0	3	0	0	0;
	2	0	0	3	0	0	0;
	2	0	0	3	0	0	0;
	2	0	0	3	0	0	0;
	2	0	0	3	0	0	0;
	2	0	0	3	0	0	0;
	2	0	0	3	0	0	0;
	2	0	0	3	0	157	0;
	2	0	0	3	0	157	0;
	2	0	0	3	0	157	0;
	2	0	0	3	0	157	0;
	2	0	0	3	0	0	0;
	2	0	0	3	0	0	0;
	2	0	0	3	0	0	0;
...
];
